
     RDKit          3D

 42 46  0  0  0  0  0  0  0  0999 V2000
   20.3421    6.3403   -4.6351 C   0  0  0  0  0  0  0  0  0  0  0  0
   19.4233    7.0259   -5.5896 C   0  0  0  0  0  0  0  0  0  0  0  0
   19.1959    8.3531   -5.4395 N   0  0  0  0  0  0  0  0  0  0  0  0
   18.3891    9.0398   -6.2937 C   0  0  0  0  0  0  0  0  0  0  0  0
   18.1425   10.3902   -6.0560 C   0  0  0  0  0  0  0  0  0  0  0  0
   17.2844   11.1033   -6.8904 C   0  0  0  0  0  0  0  0  0  0  0  0
   16.6568   10.4692   -7.9740 C   0  0  0  0  0  0  0  0  0  0  0  0
   15.6613   11.2676   -8.9795 C   0  0  0  0  0  0  0  0  0  0  0  0
   14.9004   12.3804   -8.3285 C   0  0  0  0  0  0  0  0  0  0  0  0
   14.0053   13.1244   -9.0943 C   0  0  0  0  0  0  0  0  0  0  0  0
   13.7948   12.8505  -10.4513 C   0  0  0  0  0  0  0  0  0  0  0  0
   14.4554   11.8134  -11.1260 C   0  0  0  0  0  0  0  0  0  0  0  0
   15.3827   10.9796  -10.5000 C   0  0  0  0  0  0  0  0  0  0  0  0
   16.9094    9.1111   -8.2190 C   0  0  0  0  0  0  0  0  0  0  0  0
   17.7824    8.3773   -7.3974 C   0  0  0  0  0  0  0  0  0  0  0  0
   18.0529    7.0374   -7.5618 N   0  0  0  0  0  0  0  0  0  0  0  0
   17.7031    6.0684   -8.4596 C   0  0  0  0  0  0  0  0  0  0  0  0
   16.9600    6.2334   -9.7373 C   0  0  0  0  0  0  0  0  0  0  0  0
   17.3791    7.1901  -10.6779 C   0  0  0  0  0  0  0  0  0  0  0  0
   16.6714    7.3750  -11.8688 C   0  0  0  0  0  0  0  0  0  0  0  0
   15.5786    6.5625  -12.1673 C   0  0  0  0  0  0  0  0  0  0  0  0
   15.1856    5.5685  -11.2711 C   0  0  0  0  0  0  0  0  0  0  0  0
   15.8683    5.3967  -10.0598 C   0  0  0  0  0  0  0  0  0  0  0  0
   15.2858    4.1664   -8.9430 Cl  0  0  0  0  0  0  0  0  0  0  0  0
   18.2251    4.8766   -8.0931 N   0  0  0  0  0  0  0  0  0  0  0  0
   18.9212    5.0614   -6.9769 N   0  0  0  0  0  0  0  0  0  0  0  0
   18.8173    6.3673   -6.6738 C   0  0  0  0  0  0  0  0  0  0  0  0
   20.0361    6.5686   -3.6035 H   0  0  0  0  0  0  0  0  0  0  0  0
   20.2968    5.2535   -4.7990 H   0  0  0  0  0  0  0  0  0  0  0  0
   21.3710    6.6932   -4.7990 H   0  0  0  0  0  0  0  0  0  0  0  0
   18.6267   10.8948   -5.2070 H   0  0  0  0  0  0  0  0  0  0  0  0
   17.0977   12.1703   -6.6988 H   0  0  0  0  0  0  0  0  0  0  0  0
   15.0457   12.6071   -7.2620 H   0  0  0  0  0  0  0  0  0  0  0  0
   13.4501   13.9477   -8.6211 H   0  0  0  0  0  0  0  0  0  0  0  0
   13.0822   13.4742  -11.0110 H   0  0  0  0  0  0  0  0  0  0  0  0
   14.2337   11.6509  -12.1911 H   0  0  0  0  0  0  0  0  0  0  0  0
   15.8901   10.1665  -11.0397 H   0  0  0  0  0  0  0  0  0  0  0  0
   16.4168    8.6129   -9.0670 H   0  0  0  0  0  0  0  0  0  0  0  0
   18.2724    7.7990  -10.4748 H   0  0  0  0  0  0  0  0  0  0  0  0
   16.9774    8.1634  -12.5723 H   0  0  0  0  0  0  0  0  0  0  0  0
   15.0269    6.7050  -13.1083 H   0  0  0  0  0  0  0  0  0  0  0  0
   14.3349    4.9158  -11.5168 H   0  0  0  0  0  0  0  0  0  0  0  0
  1  2  1  0
  2  3  2  0
  3  4  1  0
  4  5  2  0
  5  6  1  0
  6  7  2  0
  7  8  1  0
  8  9  2  0
  9 10  1  0
 10 11  2  0
 11 12  1  0
 12 13  2  0
  7 14  1  0
 14 15  2  0
 15 16  1  0
 16 17  1  0
 17 18  1  0
 18 19  2  0
 19 20  1  0
 20 21  2  0
 21 22  1  0
 22 23  2  0
 23 24  1  0
 17 25  2  0
 25 26  1  0
 26 27  2  0
 27  2  1  0
 15  4  1  0
 27 16  1  0
 13  8  1  0
 23 18  1  0
  1 28  1  0
  1 29  1  0
  1 30  1  0
  5 31  1  0
  6 32  1  0
  9 33  1  0
 10 34  1  0
 11 35  1  0
 12 36  1  0
 13 37  1  0
 14 38  1  0
 19 39  1  0
 20 40  1  0
 21 41  1  0
 22 42  1  0
M  END
